---- qbsp / ericw-tools v0.18.1 ----
Input file: beesnests.map
Output file: beesnests.bsp

---- LoadMapFile ----
         2519 faces
          411 brushes
          177 entities
           17 unique texnames
           56 texinfo

Opened WAD: ../wads/prototype_1_2.wad
Opened WAD: ../wads/START.WAD
Processing hull 0...
---- Brush_LoadEntity ----
          403 brushes
          622 planes
---- CSGFaces ----
         2471 brushfaces
         3890 csgfaces
         2877 mergedfaces
---- SolidBSP ----
         3665 split nodes
         1535 solid leafs
         2069 empty leafs
           62 water leafs
            0 detail leafs
            0 detail illusionary leafs
            0 detail fence leafs
            0 illusionary visblocker leafs
         7163 leaffaces
         6492 nodefaces
---- Portalize ----
         2131 vis leafs
         2131 vis clusters
         6259 vis portals
---- FillOutside ----
         1256 outleafs
---- MergeAll ----
         1646 mergefaces
---- SolidBSP ----
         1021 split nodes
          441 solid leafs
          537 empty leafs
           44 water leafs
            0 detail leafs
            0 detail illusionary leafs
            0 detail fence leafs
            0 illusionary visblocker leafs
         2988 leaffaces
         2222 nodefaces
---- Portalize ----
          581 vis leafs
          581 vis clusters
         1788 vis portals
---- Tjunc ----
         2278 world edges
         7792 edge points
         1806 edges added by tjunctions
            0 faces added by tjunctions
---- MakeFaceEdges ----
---- GrowRegions ----
Processing hull 1...
Processing hull 2...
---- WriteBSPFile ----
Wrote beesnests.bsp
         1442 planes            28840
         2986 vertexes          35832
         1069 nodes             25656
           44 texinfo            1760
         2270 faces             45400
         2629 clipnodes         21032
          630 leafs             17640
         3036 marksurfaces       6072
        10946 surfedges         43784
         5474 edges             21896
           17 textures         129408
              lightdata             0
              visdata               0
              entdata           12520

1.842 seconds elapsed
Peak memory usage: 25423868 (24.2M)
