---- qbsp / ericw-tools v0.18.1 ----
Input file: lavalab.map
Output file: lavalab.bsp

---- LoadMapFile ----
*** WARNING 06: No info_player_deathmatch entities in level
         1770 faces
          286 brushes
           84 entities
           11 unique texnames
           35 texinfo

Opened WAD: C:/Users/Raina/Documents/GitHub/QuakeSingle/wads/START.WAD
Opened WAD: C:/Users/Raina/Documents/GitHub/QuakeSingle/wads/prototype_1_2.wad
Processing hull 0...
---- Brush_LoadEntity ----
          268 brushes
          644 planes
---- CSGFaces ----
         1646 brushfaces
         2941 csgfaces
         2512 mergedfaces
---- SolidBSP ----
         3144 split nodes
         1161 solid leafs
         1667 empty leafs
          317 water leafs
            0 detail leafs
            0 detail illusionary leafs
            0 detail fence leafs
            0 illusionary visblocker leafs
         6577 leaffaces
         6064 nodefaces
---- Portalize ----
         1984 vis leafs
         1984 vis clusters
         6336 vis portals
---- FillOutside ----
          929 outleafs
---- MergeAll ----
         1861 mergefaces
---- SolidBSP ----
          818 split nodes
          299 solid leafs
          378 empty leafs
          142 water leafs
            0 detail leafs
            0 detail illusionary leafs
            0 detail fence leafs
            0 illusionary visblocker leafs
         3023 leaffaces
         2271 nodefaces
---- Portalize ----
          520 vis leafs
          520 vis clusters
         1926 vis portals
---- Tjunc ----
         1932 world edges
         6658 edge points
         2505 edges added by tjunctions
            0 faces added by tjunctions
---- MakeFaceEdges ----
---- GrowRegions ----
Processing hull 1...
Processing hull 2...
*** WARNING 16: Texture __TB_empty not found
---- WriteBSPFile ----
Wrote lavalab.bsp
         1089 planes            21780
         2797 vertexes          33564
          942 nodes             22608
           33 texinfo            1320
         2419 faces             48380
         1833 clipnodes         14664
          645 leafs             18060
         3171 marksurfaces       6342
        12112 surfedges         48448
         6057 edges             24228
           11 textures         153216
              lightdata             0
              visdata               0
              entdata            6198

0.837 seconds elapsed
Peak memory usage: 17274878 (16.5M)
