---- qbsp / ericw-tools v0.18.1 ----
Input file: lavalab.map
Output file: lavalab.bsp

---- LoadMapFile ----
*** WARNING 06: No info_player_deathmatch entities in level
         2529 faces
          388 brushes
          111 entities
           31 unique texnames
          325 texinfo

Opened WAD: C:/Users/Raina/Documents/GitHub/QuakeSingle/wads/START.WAD
Opened WAD: C:/Users/Raina/Documents/GitHub/QuakeSingle/wads/prototype_1_2.wad
Processing hull 0...
---- Brush_LoadEntity ----
          372 brushes
          896 planes
---- CSGFaces ----
         2417 brushfaces
         4309 csgfaces
         3864 mergedfaces
---- SolidBSP ----
         4570 split nodes
         1696 solid leafs
         2390 empty leafs
          485 water leafs
            0 detail leafs
            0 detail illusionary leafs
            0 detail fence leafs
            0 illusionary visblocker leafs
         9580 leaffaces
         8942 nodefaces
---- Portalize ----
         2875 vis leafs
         2875 vis clusters
         9201 vis portals
---- FillOutside ----
         1206 outleafs
---- MergeAll ----
         2989 mergefaces
---- SolidBSP ----
         1374 split nodes
          439 solid leafs
          649 empty leafs
          287 water leafs
            0 detail leafs
            0 detail illusionary leafs
            0 detail fence leafs
            0 illusionary visblocker leafs
         4680 leaffaces
         3504 nodefaces
---- Portalize ----
          936 vis leafs
          936 vis clusters
         3453 vis portals
---- Tjunc ----
         3093 world edges
        10416 edge points
         3811 edges added by tjunctions
            0 faces added by tjunctions
---- MakeFaceEdges ----
---- GrowRegions ----
Processing hull 1...
Processing hull 2...
---- WriteBSPFile ----
Wrote lavalab.bsp
         1646 planes            32920
         4212 vertexes          50544
         1486 nodes             35664
          254 texinfo           10160
         3640 faces             72800
         2690 clipnodes         21520
         1049 leafs             29372
         4816 marksurfaces       9632
        18284 surfedges         73136
         9143 edges             36572
           31 textures         271832
              lightdata             0
              visdata               0
              entdata            8473

0.830 seconds elapsed
Peak memory usage: 25207552 (24.0M)
