---- qbsp / ericw-tools v0.18.1 ----
Input file: lavalab.map
Output file: lavalab.bsp

---- LoadMapFile ----
*** WARNING 06: No info_player_deathmatch entities in level
         2061 faces
          335 brushes
           82 entities
           23 unique texnames
          184 texinfo

Opened WAD: C:/Users/Raina/Documents/GitHub/QuakeSingle/wads/START.WAD
Opened WAD: C:/Users/Raina/Documents/GitHub/QuakeSingle/wads/prototype_1_2.wad
Processing hull 0...
---- Brush_LoadEntity ----
          318 brushes
          675 planes
---- CSGFaces ----
         1943 brushfaces
         3338 csgfaces
         2881 mergedfaces
---- SolidBSP ----
         3626 split nodes
         1398 solid leafs
         1901 empty leafs
          328 water leafs
            0 detail leafs
            0 detail illusionary leafs
            0 detail fence leafs
            0 illusionary visblocker leafs
         7476 leaffaces
         6907 nodefaces
---- Portalize ----
         2229 vis leafs
         2229 vis clusters
         6907 vis portals
---- FillOutside ----
*** WARNING 10: Reached occupant at (640 -72 128), no filling performed.
Leak file written to lavalab.pts
---- MakeFaceEdges ----
---- GrowRegions ----
Processing hull 1...
Processing hull 2...
*** WARNING 16: Texture __TB_empty not found
---- WriteBSPFile ----
Wrote lavalab.bsp
         1232 planes            24640
         7817 vertexes          93804
         3744 nodes             89856
          162 texinfo            6480
         7049 faces            140980
         1896 clipnodes         15168
         2348 leafs             65744
         7618 marksurfaces      15236
        28113 surfedges        112452
        18619 edges             74476
           23 textures         252368
              lightdata             0
              visdata               0
              entdata            6047

0.630 seconds elapsed
Peak memory usage: 27112984 (25.9M)
