---- qbsp / ericw-tools v0.18.1 ----
Input file: lavalab.map
Output file: lavalab.bsp

---- LoadMapFile ----
*** WARNING 06: No info_player_deathmatch entities in level
         1740 faces
          281 brushes
           82 entities
           11 unique texnames
           35 texinfo

Opened WAD: C:/Users/Raina/Documents/GitHub/QuakeSingle/wads/START.WAD
Opened WAD: C:/Users/Raina/Documents/GitHub/QuakeSingle/wads/prototype_1_2.wad
Processing hull 0...
---- Brush_LoadEntity ----
          264 brushes
          638 planes
---- CSGFaces ----
         1622 brushfaces
         2932 csgfaces
         2512 mergedfaces
---- SolidBSP ----
         3188 split nodes
         1188 solid leafs
         1688 empty leafs
          313 water leafs
            0 detail leafs
            0 detail illusionary leafs
            0 detail fence leafs
            0 illusionary visblocker leafs
         6560 leaffaces
         6074 nodefaces
---- Portalize ----
         2001 vis leafs
         2001 vis clusters
         6293 vis portals
---- FillOutside ----
          951 outleafs
---- MergeAll ----
         1877 mergefaces
---- SolidBSP ----
          819 split nodes
          302 solid leafs
          378 empty leafs
          140 water leafs
            0 detail leafs
            0 detail illusionary leafs
            0 detail fence leafs
            0 illusionary visblocker leafs
         3048 leaffaces
         2278 nodefaces
---- Portalize ----
          518 vis leafs
          518 vis clusters
         1919 vis portals
---- Tjunc ----
         1946 world edges
         6685 edge points
         2518 edges added by tjunctions
            0 faces added by tjunctions
---- MakeFaceEdges ----
---- GrowRegions ----
Processing hull 1...
Processing hull 2...
*** WARNING 16: Texture __TB_empty not found
---- WriteBSPFile ----
Wrote lavalab.bsp
         1080 planes            21600
         2799 vertexes          33588
          937 nodes             22488
           33 texinfo            1320
         2420 faces             48400
         1781 clipnodes         14248
          637 leafs             17836
         3190 marksurfaces       6380
        12130 surfedges         48520
         6066 edges             24264
           11 textures         153216
              lightdata             0
              visdata               0
              entdata            6054

0.752 seconds elapsed
Peak memory usage: 17291388 (16.5M)
