---- qbsp / ericw-tools v0.18.1 ----
Input file: lavalab.map
Output file: lavalab.bsp

---- LoadMapFile ----
*** WARNING 06: No info_player_deathmatch entities in level
         2451 faces
          388 brushes
          115 entities
           32 unique texnames
          326 texinfo

Opened WAD: C:/Users/Raina/Documents/GitHub/QuakeSingle/wads/START.WAD
Opened WAD: C:/Users/Raina/Documents/GitHub/QuakeSingle/wads/prototype_1_2.wad
Processing hull 0...
---- Brush_LoadEntity ----
          372 brushes
          819 planes
---- CSGFaces ----
         2339 brushfaces
         3989 csgfaces
         3600 mergedfaces
---- SolidBSP ----
         4455 split nodes
         1703 solid leafs
         2314 empty leafs
          439 water leafs
            0 detail leafs
            0 detail illusionary leafs
            0 detail fence leafs
            0 illusionary visblocker leafs
         9170 leaffaces
         8546 nodefaces
---- Portalize ----
         2753 vis leafs
         2753 vis clusters
         8759 vis portals
---- FillOutside ----
         1224 outleafs
---- MergeAll ----
         2717 mergefaces
---- SolidBSP ----
         1243 split nodes
          434 solid leafs
          575 empty leafs
          235 water leafs
            0 detail leafs
            0 detail illusionary leafs
            0 detail fence leafs
            0 illusionary visblocker leafs
         4316 leaffaces
         3216 nodefaces
---- Portalize ----
          810 vis leafs
          810 vis clusters
         2973 vis portals
---- Tjunc ----
         2805 world edges
         9593 edge points
         3535 edges added by tjunctions
            0 faces added by tjunctions
---- MakeFaceEdges ----
---- GrowRegions ----
Processing hull 1...
Processing hull 2...
---- WriteBSPFile ----
Wrote lavalab.bsp
         1398 planes            27960
         3903 vertexes          46836
         1355 nodes             32520
          257 texinfo           10280
         3352 faces             67040
         2433 clipnodes         19464
          923 leafs             25844
         4452 marksurfaces       8904
        16864 surfedges         67456
         8433 edges             33732
           32 textures         293636
              lightdata             0
              visdata               0
              entdata            8694

1.094 seconds elapsed
Peak memory usage: 24266536 (23.1M)
