---- qbsp / ericw-tools v0.18.1 ----
Input file: lavalab.map
Output file: lavalab.bsp

---- LoadMapFile ----
*** WARNING 06: No info_player_deathmatch entities in level
         1264 faces
          210 brushes
           31 entities
            7 unique texnames
           23 texinfo

Opened WAD: C:/Users/Raina/Documents/GitHub/QuakeSingle/wads/START.WAD
Opened WAD: C:/Users/Raina/Documents/GitHub/QuakeSingle/wads/prototype_1_2.wad
Processing hull 0...
---- Brush_LoadEntity ----
          207 brushes
          515 planes
---- CSGFaces ----
         1246 brushfaces
         2350 csgfaces
         1920 mergedfaces
---- SolidBSP ----
         2718 split nodes
         1048 solid leafs
         1379 empty leafs
          292 water leafs
            0 detail leafs
            0 detail illusionary leafs
            0 detail fence leafs
            0 illusionary visblocker leafs
         5156 leaffaces
         4729 nodefaces
---- Portalize ----
         1671 vis leafs
         1671 vis clusters
         5056 vis portals
---- FillOutside ----
*** WARNING 10: Reached occupant at (1784 -1568 756), no filling performed.
Leak file written to lavalab.pts
---- MakeFaceEdges ----
---- GrowRegions ----
Processing hull 1...
Processing hull 2...
---- WriteBSPFile ----
Wrote lavalab.bsp
          900 planes            18000
         5410 vertexes          64920
         2736 nodes             65664
           22 texinfo             880
         4747 faces             94940
         1587 clipnodes         12696
         1690 leafs             47320
         5174 marksurfaces      10348
        18982 surfedges         75928
        12649 edges             50596
            7 textures         103672
              lightdata             0
              visdata               0
              entdata            2015

0.917 seconds elapsed
Peak memory usage: 19480492 (18.6M)
