---- qbsp / ericw-tools v0.18.1 ----
Input file: lavalab.map
Output file: lavalab.bsp

---- LoadMapFile ----
*** WARNING 06: No info_player_deathmatch entities in level
         2529 faces
          388 brushes
          112 entities
           32 unique texnames
          328 texinfo

Opened WAD: C:/Users/Raina/Documents/GitHub/QuakeSingle/wads/START.WAD
Opened WAD: C:/Users/Raina/Documents/GitHub/QuakeSingle/wads/prototype_1_2.wad
Processing hull 0...
---- Brush_LoadEntity ----
          372 brushes
          896 planes
---- CSGFaces ----
         2417 brushfaces
         4309 csgfaces
         3865 mergedfaces
---- SolidBSP ----
         4570 split nodes
         1696 solid leafs
         2390 empty leafs
          485 water leafs
            0 detail leafs
            0 detail illusionary leafs
            0 detail fence leafs
            0 illusionary visblocker leafs
         9581 leaffaces
         8943 nodefaces
---- Portalize ----
         2875 vis leafs
         2875 vis clusters
         9201 vis portals
---- FillOutside ----
         1206 outleafs
---- MergeAll ----
         2990 mergefaces
---- SolidBSP ----
         1374 split nodes
          439 solid leafs
          649 empty leafs
          287 water leafs
            0 detail leafs
            0 detail illusionary leafs
            0 detail fence leafs
            0 illusionary visblocker leafs
         4681 leaffaces
         3505 nodefaces
---- Portalize ----
          936 vis leafs
          936 vis clusters
         3453 vis portals
---- Tjunc ----
         3093 world edges
        10416 edge points
         3809 edges added by tjunctions
            0 faces added by tjunctions
---- MakeFaceEdges ----
---- GrowRegions ----
Processing hull 1...
Processing hull 2...
---- WriteBSPFile ----
Wrote lavalab.bsp
         1646 planes            32920
         4212 vertexes          50544
         1486 nodes             35664
          254 texinfo           10160
         3641 faces             72820
         2690 clipnodes         21520
         1049 leafs             29372
         4817 marksurfaces       9634
        18286 surfedges         73144
         9144 edges             36576
           32 textures         277764
              lightdata             0
              visdata               0
              entdata            8534

1.582 seconds elapsed
Peak memory usage: 25209264 (24.0M)
