---- qbsp / ericw-tools v0.18.1 ----
Input file: TrialMap.map
Output file: TrialMap.bsp

---- LoadMapFile ----
*** WARNING 06: No info_player_deathmatch entities in level
           42 faces
            7 brushes
            6 entities
            3 unique texnames
           14 texinfo

Opened WAD: D:/quake-leveldesign-starterkit-master/wads/START.WAD
Processing hull 0...
---- Brush_LoadEntity ----
            7 brushes
           20 planes
---- CSGFaces ----
           42 brushfaces
           42 csgfaces
           41 mergedfaces
---- SolidBSP ----
           76 split nodes
           24 solid leafs
           53 empty leafs
            0 water leafs
            0 detail leafs
            0 detail illusionary leafs
            0 detail fence leafs
            0 illusionary visblocker leafs
          223 leaffaces
          223 nodefaces
---- Portalize ----
           53 vis leafs
           53 vis clusters
          119 vis portals
---- FillOutside ----
           47 outleafs
---- MergeAll ----
           12 mergefaces
---- SolidBSP ----
           12 split nodes
            7 solid leafs
            6 empty leafs
            0 water leafs
            0 detail leafs
            0 detail illusionary leafs
            0 detail fence leafs
            0 illusionary visblocker leafs
           84 leaffaces
           52 nodefaces
---- Portalize ----
            6 vis leafs
            6 vis clusters
           12 vis portals
---- Tjunc ----
           48 world edges
          156 edge points
            8 edges added by tjunctions
            0 faces added by tjunctions
---- MakeFaceEdges ----
---- GrowRegions ----
Processing hull 1...
Processing hull 2...
---- WriteBSPFile ----
Wrote TrialMap.bsp
           31 planes              620
           60 vertexes            720
           12 nodes               288
            8 texinfo             320
           52 faces              1040
           38 clipnodes           304
            7 leafs               196
           84 marksurfaces        168
          216 surfedges           864
          109 edges               436
            3 textures          17800
              lightdata             0
              visdata               0
              entdata             396

0.229 seconds elapsed
Peak memory usage: 617432 (0.6M)
